<additional xmlns:xsi="http://www.w3.org/2001/XMLSchema-instance" xsi:noNamespaceSchemaLocation="http://sumo.dlr.de/xsd/additional_file.xsd">
    <laneAreaDetector file="e2.output.xml" freq="60" friendlyPos="x" id="e2det--J1---E1---E1_0--r" lane="-E1_0" pos="81.92000000000002" length="50"/>
    <laneAreaDetector file="e2.output.xml" freq="60" friendlyPos="x" id="e2det--J1---E1---E1_1--s" lane="-E1_1" pos="81.92000000000002" length="50"/>
    <laneAreaDetector file="e2.output.xml" freq="60" friendlyPos="x" id="e2det--J1---E1---E1_2--l" lane="-E1_2" pos="81.92000000000002" length="50"/>
    <laneAreaDetector file="e2.output.xml" freq="60" friendlyPos="x" id="e2det--J1---E4---E4_0--r" lane="-E4_0" pos="42.38" length="50"/>
    <laneAreaDetector file="e2.output.xml" freq="60" friendlyPos="x" id="e2det--J1---E4---E4_1--s" lane="-E4_1" pos="42.38" length="50"/>
    <laneAreaDetector file="e2.output.xml" freq="60" friendlyPos="x" id="e2det--J1---E4---E4_2--l" lane="-E4_2" pos="42.38" length="50"/>
    <laneAreaDetector file="e2.output.xml" freq="60" friendlyPos="x" id="e2det--J1--E0--E0_0--r" lane="E0_0" pos="108.64000000000001" length="50"/>
    <laneAreaDetector file="e2.output.xml" freq="60" friendlyPos="x" id="e2det--J1--E0--E0_1--s" lane="E0_1" pos="108.64000000000001" length="50"/>
    <laneAreaDetector file="e2.output.xml" freq="60" friendlyPos="x" id="e2det--J1--E0--E0_2--l" lane="E0_2" pos="108.64000000000001" length="50"/>
    <laneAreaDetector file="e2.output.xml" freq="60" friendlyPos="x" id="e2det--J1--E3--E3_0--r" lane="E3_0" pos="41.74999999999999" length="50"/>
    <laneAreaDetector file="e2.output.xml" freq="60" friendlyPos="x" id="e2det--J1--E3--E3_1--s" lane="E3_1" pos="41.74999999999999" length="50"/>
    <laneAreaDetector file="e2.output.xml" freq="60" friendlyPos="x" id="e2det--J1--E3--E3_2--l" lane="E3_2" pos="41.74999999999999" length="50"/>
    <laneAreaDetector file="e2.output.xml" freq="60" friendlyPos="x" id="e2det--J2---E2---E2_0--r" lane="-E2_0" pos="84.27000000000001" length="50"/>
    <laneAreaDetector file="e2.output.xml" freq="60" friendlyPos="x" id="e2det--J2---E2---E2_1--s" lane="-E2_1" pos="84.27000000000001" length="50"/>
    <laneAreaDetector file="e2.output.xml" freq="60" friendlyPos="x" id="e2det--J2---E2---E2_2--l" lane="-E2_2" pos="84.27000000000001" length="50"/>
    <laneAreaDetector file="e2.output.xml" freq="60" friendlyPos="x" id="e2det--J2---E6---E6_0--r" lane="-E6_0" pos="50.199999999999996" length="50"/>
    <laneAreaDetector file="e2.output.xml" freq="60" friendlyPos="x" id="e2det--J2---E6---E6_1--s" lane="-E6_1" pos="50.199999999999996" length="50"/>
    <laneAreaDetector file="e2.output.xml" freq="60" friendlyPos="x" id="e2det--J2---E6---E6_2--l" lane="-E6_2" pos="50.199999999999996" length="50"/>
    <laneAreaDetector file="e2.output.xml" freq="60" friendlyPos="x" id="e2det--J2--E1--E1_0--r" lane="E1_0" pos="81.92000000000002" length="50"/>
    <laneAreaDetector file="e2.output.xml" freq="60" friendlyPos="x" id="e2det--J2--E1--E1_1--s" lane="E1_1" pos="81.92000000000002" length="50"/>
    <laneAreaDetector file="e2.output.xml" freq="60" friendlyPos="x" id="e2det--J2--E1--E1_2--l" lane="E1_2" pos="81.92000000000002" length="50"/>
    <laneAreaDetector file="e2.output.xml" freq="60" friendlyPos="x" id="e2det--J2--E5--E5_0--r" lane="E5_0" pos="49.60999999999999" length="50"/>
    <laneAreaDetector file="e2.output.xml" freq="60" friendlyPos="x" id="e2det--J2--E5--E5_1--s" lane="E5_1" pos="49.60999999999999" length="50"/>
    <laneAreaDetector file="e2.output.xml" freq="60" friendlyPos="x" id="e2det--J2--E5--E5_2--l" lane="E5_2" pos="49.60999999999999" length="50"/>
    <laneAreaDetector file="e2.output.xml" freq="60" friendlyPos="x" id="e2det--J3---E7---E7_0--r" lane="-E7_0" pos="164.61" length="50"/>
    <laneAreaDetector file="e2.output.xml" freq="60" friendlyPos="x" id="e2det--J3---E7---E7_1--s" lane="-E7_1" pos="164.61" length="50"/>
    <laneAreaDetector file="e2.output.xml" freq="60" friendlyPos="x" id="e2det--J3---E7---E7_2--l" lane="-E7_2" pos="164.61" length="50"/>
    <laneAreaDetector file="e2.output.xml" freq="60" friendlyPos="x" id="e2det--J3---E9---E9_0--r" lane="-E9_0" pos="58.46" length="50"/>
    <laneAreaDetector file="e2.output.xml" freq="60" friendlyPos="x" id="e2det--J3---E9---E9_1--s" lane="-E9_1" pos="58.46" length="50"/>
    <laneAreaDetector file="e2.output.xml" freq="60" friendlyPos="x" id="e2det--J3---E9---E9_2--l" lane="-E9_2" pos="58.46" length="50"/>
    <laneAreaDetector file="e2.output.xml" freq="60" friendlyPos="x" id="e2det--J3--E2--E2_0--r" lane="E2_0" pos="84.27000000000001" length="50"/>
    <laneAreaDetector file="e2.output.xml" freq="60" friendlyPos="x" id="e2det--J3--E2--E2_1--s" lane="E2_1" pos="84.27000000000001" length="50"/>
    <laneAreaDetector file="e2.output.xml" freq="60" friendlyPos="x" id="e2det--J3--E2--E2_2--l" lane="E2_2" pos="84.27000000000001" length="50"/>
    <laneAreaDetector file="e2.output.xml" freq="60" friendlyPos="x" id="e2det--J3--E8--E8_0--r" lane="E8_0" pos="56.440000000000005" length="50"/>
    <laneAreaDetector file="e2.output.xml" freq="60" friendlyPos="x" id="e2det--J3--E8--E8_1--s" lane="E8_1" pos="56.440000000000005" length="50"/>
    <laneAreaDetector file="e2.output.xml" freq="60" friendlyPos="x" id="e2det--J3--E8--E8_2--l" lane="E8_2" pos="56.440000000000005" length="50"/>
</additional>
