<additional xmlns:xsi="http://www.w3.org/2001/XMLSchema-instance" xsi:noNamespaceSchemaLocation="http://sumo.dlr.de/xsd/additional_file.xsd">
    <laneAreaDetector file="e2.output.xml" freq="60" friendlyPos="x" id="e2det--J1--311791478#1--311791478#1_0--r" lane="311791478#1_0" pos="102.93" length="100"/>
    <laneAreaDetector file="e2.output.xml" freq="60" friendlyPos="x" id="e2det--J1--311791478#1--311791478#1_1--s" lane="311791478#1_1" pos="102.93" length="100"/>
    <laneAreaDetector file="e2.output.xml" freq="60" friendlyPos="x" id="e2det--J1--311791478#1--311791478#1_2--s" lane="311791478#1_2" pos="102.93" length="100"/>
    <laneAreaDetector file="e2.output.xml" freq="60" friendlyPos="x" id="e2det--J1--311791478#1--311791478#1_3--s" lane="311791478#1_3" pos="102.93" length="100"/>
    <laneAreaDetector file="e2.output.xml" freq="60" friendlyPos="x" id="e2det--J1--311791478#1--311791478#1_4--s" lane="311791478#1_4" pos="102.93" length="100"/>
    <laneAreaDetector file="e2.output.xml" freq="60" friendlyPos="x" id="e2det--J1--311791478#1--311791478#1_5--s" lane="311791478#1_5" pos="102.93" length="100"/>
    <laneAreaDetector file="e2.output.xml" freq="60" friendlyPos="x" id="e2det--J1--311791478#1--311791478#1_6--l" lane="311791478#1_6" pos="102.93" length="100"/>
    <laneAreaDetector file="e2.output.xml" freq="60" friendlyPos="x" id="e2det--J1--989774305#0--989774305#0_0--r" lane="989774305#0_0" pos="107.13" length="100"/>
    <laneAreaDetector file="e2.output.xml" freq="60" friendlyPos="x" id="e2det--J1--989774305#0--989774305#0_1--s" lane="989774305#0_1" pos="107.13" length="100"/>
    <laneAreaDetector file="e2.output.xml" freq="60" friendlyPos="x" id="e2det--J1--989774305#0--989774305#0_2--s" lane="989774305#0_2" pos="107.13" length="100"/>
    <laneAreaDetector file="e2.output.xml" freq="60" friendlyPos="x" id="e2det--J1--989774305#0--989774305#0_3--l" lane="989774305#0_3" pos="107.13" length="100"/>
    <laneAreaDetector file="e2.output.xml" freq="60" friendlyPos="x" id="e2det--J1--989774305#0--989774305#0_4--l" lane="989774305#0_4" pos="107.13" length="100"/>
    <laneAreaDetector file="e2.output.xml" freq="60" friendlyPos="x" id="e2det--J1--429770748#1--429770748#1_0--r" lane="429770748#1_0" pos="151.12" length="100"/>
    <laneAreaDetector file="e2.output.xml" freq="60" friendlyPos="x" id="e2det--J1--429770748#1--429770748#1_1--s" lane="429770748#1_1" pos="151.12" length="100"/>
    <laneAreaDetector file="e2.output.xml" freq="60" friendlyPos="x" id="e2det--J1--429770748#1--429770748#1_2--s" lane="429770748#1_2" pos="151.12" length="100"/>
    <laneAreaDetector file="e2.output.xml" freq="60" friendlyPos="x" id="e2det--J1--429770748#1--429770748#1_3--s" lane="429770748#1_3" pos="151.12" length="100"/>
    <laneAreaDetector file="e2.output.xml" freq="60" friendlyPos="x" id="e2det--J1--429770748#1--429770748#1_4--s" lane="429770748#1_4" pos="151.12" length="100"/>
    <laneAreaDetector file="e2.output.xml" freq="60" friendlyPos="x" id="e2det--J1--429770748#1--429770748#1_5--l" lane="429770748#1_5" pos="151.12" length="100"/>
    <laneAreaDetector file="e2.output.xml" freq="60" friendlyPos="x" id="e2det--J1--E0--E0_0--r" lane="E0_0" pos="27.21" length="100"/>
    <laneAreaDetector file="e2.output.xml" freq="60" friendlyPos="x" id="e2det--J1--E0--E0_1--s" lane="E0_1" pos="27.21" length="100"/>
    <laneAreaDetector file="e2.output.xml" freq="60" friendlyPos="x" id="e2det--J1--E0--E0_2--s" lane="E0_2" pos="27.21" length="100"/>
    <laneAreaDetector file="e2.output.xml" freq="60" friendlyPos="x" id="e2det--J1--E0--E0_3--s" lane="E0_3" pos="27.21" length="100"/>
    <laneAreaDetector file="e2.output.xml" freq="60" friendlyPos="x" id="e2det--J1--E0--E0_4--l" lane="E0_4" pos="27.21" length="100"/>
    <laneAreaDetector file="e2.output.xml" freq="60" friendlyPos="x" id="e2det--J2--315156946#0--315156946#0_0--r" lane="315156946#0_0" pos="151.42000000000002" length="100"/>
    <laneAreaDetector file="e2.output.xml" freq="60" friendlyPos="x" id="e2det--J2--315156946#0--315156946#0_1--s" lane="315156946#0_1" pos="151.42000000000002" length="100"/>
    <laneAreaDetector file="e2.output.xml" freq="60" friendlyPos="x" id="e2det--J2--315156946#0--315156946#0_2--s" lane="315156946#0_2" pos="151.42000000000002" length="100"/>
    <laneAreaDetector file="e2.output.xml" freq="60" friendlyPos="x" id="e2det--J2--315156946#0--315156946#0_3--s" lane="315156946#0_3" pos="151.42000000000002" length="100"/>
    <laneAreaDetector file="e2.output.xml" freq="60" friendlyPos="x" id="e2det--J2--315156946#0--315156946#0_4--l" lane="315156946#0_4" pos="151.42000000000002" length="100"/>
    <laneAreaDetector file="e2.output.xml" freq="60" friendlyPos="x" id="e2det--J2--315156946#0--315156946#0_5--l" lane="315156946#0_5" pos="151.42000000000002" length="100"/>
    <laneAreaDetector file="e2.output.xml" freq="60" friendlyPos="x" id="e2det--J2--989312046#0--989312046#0_0--r" lane="989312046#0_0" pos="102.03999999999999" length="100"/>
    <laneAreaDetector file="e2.output.xml" freq="60" friendlyPos="x" id="e2det--J2--989312046#0--989312046#0_1--s" lane="989312046#0_1" pos="102.03999999999999" length="100"/>
    <laneAreaDetector file="e2.output.xml" freq="60" friendlyPos="x" id="e2det--J2--989312046#0--989312046#0_2--s" lane="989312046#0_2" pos="102.03999999999999" length="100"/>
    <laneAreaDetector file="e2.output.xml" freq="60" friendlyPos="x" id="e2det--J2--989312046#0--989312046#0_3--s" lane="989312046#0_3" pos="102.03999999999999" length="100"/>
    <laneAreaDetector file="e2.output.xml" freq="60" friendlyPos="x" id="e2det--J2--989312046#0--989312046#0_4--l" lane="989312046#0_4" pos="102.03999999999999" length="100"/>
    <laneAreaDetector file="e2.output.xml" freq="60" friendlyPos="x" id="e2det--J2--E1--E1_0--r" lane="E1_0" pos="182.17999999999998" length="100"/>
    <laneAreaDetector file="e2.output.xml" freq="60" friendlyPos="x" id="e2det--J2--E1--E1_1--s" lane="E1_1" pos="182.17999999999998" length="100"/>
    <laneAreaDetector file="e2.output.xml" freq="60" friendlyPos="x" id="e2det--J2--E1--E1_2--s" lane="E1_2" pos="182.17999999999998" length="100"/>
    <laneAreaDetector file="e2.output.xml" freq="60" friendlyPos="x" id="e2det--J2--E1--E1_3--s" lane="E1_3" pos="182.17999999999998" length="100"/>
    <laneAreaDetector file="e2.output.xml" freq="60" friendlyPos="x" id="e2det--J2--E1--E1_4--l" lane="E1_4" pos="182.17999999999998" length="100"/>
    <laneAreaDetector file="e2.output.xml" freq="60" friendlyPos="x" id="e2det--J2--525074961#6--525074961#6_0--r" lane="525074961#6_0" pos="25.910000000000004" length="100"/>
    <laneAreaDetector file="e2.output.xml" freq="60" friendlyPos="x" id="e2det--J2--525074961#6--525074961#6_1--s" lane="525074961#6_1" pos="25.910000000000004" length="100"/>
    <laneAreaDetector file="e2.output.xml" freq="60" friendlyPos="x" id="e2det--J2--525074961#6--525074961#6_2--s" lane="525074961#6_2" pos="25.910000000000004" length="100"/>
    <laneAreaDetector file="e2.output.xml" freq="60" friendlyPos="x" id="e2det--J2--525074961#6--525074961#6_3--s" lane="525074961#6_3" pos="25.910000000000004" length="100"/>
    <laneAreaDetector file="e2.output.xml" freq="60" friendlyPos="x" id="e2det--J2--525074961#6--525074961#6_4--s" lane="525074961#6_4" pos="25.910000000000004" length="100"/>
    <laneAreaDetector file="e2.output.xml" freq="60" friendlyPos="x" id="e2det--J2--525074961#6--525074961#6_5--l" lane="525074961#6_5" pos="25.910000000000004" length="100"/>
    <laneAreaDetector file="e2.output.xml" freq="60" friendlyPos="x" id="e2det--J3--E3--E3_0--r" lane="E3_0" pos="96.78" length="100"/>
    <laneAreaDetector file="e2.output.xml" freq="60" friendlyPos="x" id="e2det--J3--E3--E3_1--s" lane="E3_1" pos="96.78" length="100"/>
    <laneAreaDetector file="e2.output.xml" freq="60" friendlyPos="x" id="e2det--J3--E3--E3_2--s" lane="E3_2" pos="96.78" length="100"/>
    <laneAreaDetector file="e2.output.xml" freq="60" friendlyPos="x" id="e2det--J3--E3--E3_3--s" lane="E3_3" pos="96.78" length="100"/>
    <laneAreaDetector file="e2.output.xml" freq="60" friendlyPos="x" id="e2det--J3--E3--E3_4--s" lane="E3_4" pos="96.78" length="100"/>
    <laneAreaDetector file="e2.output.xml" freq="60" friendlyPos="x" id="e2det--J3--E3--E3_5--s" lane="E3_5" pos="96.78" length="100"/>
    <laneAreaDetector file="e2.output.xml" freq="60" friendlyPos="x" id="e2det--J3--E3--E3_6--l" lane="E3_6" pos="96.78" length="100"/>
    <laneAreaDetector file="e2.output.xml" freq="60" friendlyPos="x" id="e2det--J3---600968887#0---600968887#0_0--r" lane="-600968887#0_0" pos="0" length="81.71000000000001"/>
    <laneAreaDetector file="e2.output.xml" freq="60" friendlyPos="x" id="e2det--J3---600968887#0---600968887#0_1--s" lane="-600968887#0_1" pos="0" length="81.71000000000001"/>
    <laneAreaDetector file="e2.output.xml" freq="60" friendlyPos="x" id="e2det--J3---600968887#0---600968887#0_2--s" lane="-600968887#0_2" pos="0" length="81.71000000000001"/>
    <laneAreaDetector file="e2.output.xml" freq="60" friendlyPos="x" id="e2det--J3---600968887#0---600968887#0_3--s" lane="-600968887#0_3" pos="0" length="81.71000000000001"/>
    <laneAreaDetector file="e2.output.xml" freq="60" friendlyPos="x" id="e2det--J3---600968887#0---600968887#0_4--l" lane="-600968887#0_4" pos="0" length="81.71000000000001"/>
    <laneAreaDetector file="e2.output.xml" freq="60" friendlyPos="x" id="e2det--J3--236366211--236366211_0--r" lane="236366211_0" pos="494.86" length="100"/>
    <laneAreaDetector file="e2.output.xml" freq="60" friendlyPos="x" id="e2det--J3--236366211--236366211_1--s" lane="236366211_1" pos="494.86" length="100"/>
    <laneAreaDetector file="e2.output.xml" freq="60" friendlyPos="x" id="e2det--J3--236366211--236366211_2--s" lane="236366211_2" pos="494.86" length="100"/>
    <laneAreaDetector file="e2.output.xml" freq="60" friendlyPos="x" id="e2det--J3--236366211--236366211_3--s" lane="236366211_3" pos="494.86" length="100"/>
    <laneAreaDetector file="e2.output.xml" freq="60" friendlyPos="x" id="e2det--J3--236366211--236366211_4--s" lane="236366211_4" pos="494.86" length="100"/>
    <laneAreaDetector file="e2.output.xml" freq="60" friendlyPos="x" id="e2det--J3--236366211--236366211_5--l" lane="236366211_5" pos="494.86" length="100"/>
    <laneAreaDetector file="e2.output.xml" freq="60" friendlyPos="x" id="e2det--J3---317091485#2---317091485#2_0--r" lane="-317091485#2_0" pos="68.55000000000001" length="100"/>
    <laneAreaDetector file="e2.output.xml" freq="60" friendlyPos="x" id="e2det--J3---317091485#2---317091485#2_1--s" lane="-317091485#2_1" pos="68.55000000000001" length="100"/>
    <laneAreaDetector file="e2.output.xml" freq="60" friendlyPos="x" id="e2det--J3---317091485#2---317091485#2_2--s" lane="-317091485#2_2" pos="68.55000000000001" length="100"/>
    <laneAreaDetector file="e2.output.xml" freq="60" friendlyPos="x" id="e2det--J3---317091485#2---317091485#2_3--s" lane="-317091485#2_3" pos="68.55000000000001" length="100"/>
    <laneAreaDetector file="e2.output.xml" freq="60" friendlyPos="x" id="e2det--J3---317091485#2---317091485#2_4--l" lane="-317091485#2_4" pos="68.55000000000001" length="100"/>
</additional>
