<?xml version="1.0" encoding="UTF-8"?>

<!-- generated on 2024-09-16 15:25:46 by Eclipse SUMO netedit Version 1.20.0
-->

<additional xmlns:xsi="http://www.w3.org/2001/XMLSchema-instance" xsi:noNamespaceSchemaLocation="http://sumo.dlr.de/xsd/additional_file.xsd">
    <!-- Shapes -->
    <poly id="1035289826" type="building" color="255,230,230" fill="1" layer="-1.00" shape="634.800001,2711.275039 640.326251,2716.155299 690.280791,2726.384184 747.472398,2673.308447 768.773101,2696.802799 856.256429,2621.183900 831.478762,2482.555184 758.942317,2548.750378 765.478256,2579.787541 705.466898,2635.265502 711.560179,2641.208642 634.800001,2711.275039"/>
    <poly id="1035289826#1" type="tourism" color="207,245,201" fill="1" layer="-2.00" shape="634.800001,2711.275039 640.326251,2716.155299 690.280791,2726.384184 747.472398,2673.308447 768.773101,2696.802799 856.256429,2621.183900 831.478762,2482.555184 758.942317,2548.750378 765.478256,2579.787541 705.466898,2635.265502 711.560179,2641.208642 634.800001,2711.275039"/>
    <poly id="1035290547" type="tourism" color="207,245,201" fill="1" layer="-2.00" shape="993.215362,2339.035050 994.263396,2338.786755 995.042765,2338.423043 995.610725,2337.753724 996.091259,2337.131007 996.508706,2336.465454 996.853380,2335.723998 997.119451,2334.673611 997.885483,2330.590561 998.411380,2323.637713 997.864109,2320.531324 997.283803,2319.291149 995.992392,2317.602422 993.991884,2316.253441 992.003838,2315.048493 989.775076,2313.782949 988.344012,2312.886066 986.660013,2311.440338 986.165497,2310.442294 985.514359,2309.203893 984.372315,2307.111703 982.500378,2304.882330 981.448109,2304.253557 980.674226,2304.128578 979.540951,2304.156938 978.777898,2304.464725 977.936305,2305.174203 977.130715,2306.260300 976.592958,2307.428522 976.385565,2308.699511 976.421944,2310.153159 976.627621,2311.291673 976.774622,2312.209585 977.183378,2313.320809 977.803481,2314.027019 978.944563,2314.664673 980.106374,2315.068635 981.401824,2315.502563 982.126194,2315.773126 982.648872,2316.126462 982.910105,2316.652893 983.048252,2317.571026 982.976376,2318.239035 982.740413,2318.722391 982.209224,2319.090996 981.805841,2319.256540 981.594218,2319.650458 981.486405,2320.652471 981.565663,2322.049529 981.775782,2323.365588 981.975071,2324.248881 982.278629,2324.696528 982.663780,2324.864545 983.097056,2324.831496 983.723447,2324.726992 983.923749,2324.588738 984.023884,2324.341955 984.010278,2323.798224 984.119822,2323.573412 984.321235,2323.479544 984.524315,2323.452255 984.639968,2323.471568 984.722151,2323.569442 984.752044,2323.701936 984.745851,2325.578583 984.713769,2325.712628 984.629119,2325.870196 984.436837,2325.974939 984.022935,2326.074125 983.732152,2326.136919 983.654968,2326.238782 983.596880,2326.395685 983.601323,2326.573230 983.623784,2327.116739 983.700445,2327.347994 983.881684,2327.510011 984.237497,2327.567728 985.202827,2327.554674 985.496943,2327.625039 985.681792,2327.931311 985.724982,2328.241128 985.736645,2328.707184 985.751362,2329.295301 985.874235,2329.603124 986.551003,2329.741637 988.108974,2329.691546 988.369896,2329.851569 988.552802,2330.080166 988.662410,2330.565977 989.024055,2330.856722 989.362439,2330.925978 989.829185,2330.814367 990.095874,2330.496795 990.141221,2330.184762 990.210075,2329.750003 990.495304,2329.465278 990.689252,2329.427114 991.026526,2329.451984 991.483617,2329.662616 991.752592,2330.144439 991.937163,2330.439615 992.314572,2330.652241 992.493867,2330.736582 992.577437,2330.889940 992.617573,2331.077695 992.586601,2331.256126 992.464871,2331.348000 989.146960,2331.519856 988.981239,2331.623935 988.836003,2331.838536 988.499969,2333.279297 988.514228,2334.911155 988.804436,2337.657561 989.054037,2338.073248 989.488455,2338.439896 990.054012,2338.736641 990.688732,2338.965035 991.585730,2339.053623 993.215362,2339.035050"/>
    <poly id="1035290548" type="tourism" color="207,245,201" fill="1" layer="-2.00" shape="921.444446,2315.937282 920.077224,2314.405912 917.745363,2311.499648 916.690207,2309.693982 915.871045,2307.760271 915.708759,2306.232049 915.898920,2304.273071 916.942165,2303.125502 918.392402,2301.956641 919.629944,2301.492625 921.054559,2301.423653 922.425254,2301.678033 924.172562,2302.467058 926.642888,2303.826470 927.919559,2304.571759 929.387401,2305.167916 931.460872,2305.537948 934.648487,2305.469263 937.506916,2306.052822 939.761139,2307.273302 941.426573,2308.330863 942.533701,2309.735504 942.840974,2311.393339 942.493072,2313.067573 941.349726,2314.817234 939.605683,2316.282136 937.266777,2317.695308 935.740953,2318.321986 934.494248,2318.419813 933.812479,2318.081566 933.379689,2317.426188 933.269244,2316.907088 932.667158,2316.566847 932.189058,2316.578814 931.706514,2316.413236 931.222546,2315.836865 931.073318,2314.830181 931.178105,2314.061416 931.117205,2313.752042 930.875377,2313.647060 930.529805,2313.644607 930.204162,2313.730483 930.032643,2313.956846 929.995874,2314.257561 929.983479,2314.824150 929.790399,2315.250917 929.514302,2315.546519 928.992489,2315.581788 928.563067,2315.414881 928.048406,2315.028037 927.525205,2315.007823 927.017245,2315.242608 926.716809,2315.627648 926.360509,2316.258363 925.829321,2316.626972 924.601469,2317.124055 923.884319,2317.142006 922.899058,2317.066738 921.983481,2316.589999 921.444446,2315.937282"/>
    <poly id="1035290548#1" type="tourism" color="207,245,201" fill="1" layer="-2.00" shape="921.444446,2315.937282 920.077224,2314.405912 917.745363,2311.499648 916.690207,2309.693982 915.871045,2307.760271 915.708759,2306.232049 915.898920,2304.273071 916.942165,2303.125502 918.392402,2301.956641 919.629944,2301.492625 921.054559,2301.423653 922.425254,2301.678033 924.172562,2302.467058 926.642888,2303.826470 927.919559,2304.571759 929.387401,2305.167916 931.460872,2305.537948 934.648487,2305.469263 937.506916,2306.052822 939.761139,2307.273302 941.426573,2308.330863 942.533701,2309.735504 942.840974,2311.393339 942.493072,2313.067573 941.349726,2314.817234 939.605683,2316.282136 937.266777,2317.695308 935.740953,2318.321986 934.494248,2318.419813 933.812479,2318.081566 933.379689,2317.426188 933.269244,2316.907088 932.667158,2316.566847 932.189058,2316.578814 931.706514,2316.413236 931.222546,2315.836865 931.073318,2314.830181 931.178105,2314.061416 931.117205,2313.752042 930.875377,2313.647060 930.529805,2313.644607 930.204162,2313.730483 930.032643,2313.956846 929.995874,2314.257561 929.983479,2314.824150 929.790399,2315.250917 929.514302,2315.546519 928.992489,2315.581788 928.563067,2315.414881 928.048406,2315.028037 927.525205,2315.007823 927.017245,2315.242608 926.716809,2315.627648 926.360509,2316.258363 925.829321,2316.626972 924.601469,2317.124055 923.884319,2317.142006 922.899058,2317.066738 921.983481,2316.589999 921.444446,2315.937282"/>
    <poly id="1035290549" type="tourism" color="207,245,201" fill="1" layer="-2.00" shape="926.384400,2328.538244 925.390564,2328.474294 924.849621,2328.099212 924.514222,2327.441397 924.377180,2326.567650 924.765562,2325.802890 925.610759,2325.237661 926.412001,2325.039948 927.202758,2325.131190 927.957023,2325.534242 928.193642,2326.139012 928.351169,2327.123281 927.987126,2327.798604 927.257582,2328.383145 926.384400,2328.538244"/>
    <poly id="1035290550" type="tourism" color="207,245,201" fill="1" layer="-2.00" shape="923.763947,2322.596842 923.177936,2322.544890 922.879097,2322.285886 922.529602,2321.772770 922.464813,2321.308044 922.450647,2320.742120 922.557412,2320.406342 922.953571,2319.952285 923.647180,2319.701749 924.318950,2319.640519 924.745595,2319.696461 925.085091,2319.810101 925.409379,2320.024053 925.552184,2320.420205 925.610063,2320.962828 925.513263,2321.342770 925.222792,2321.771975 924.895518,2322.146583 924.522031,2322.444623 923.763947,2322.596842"/>
    <poly id="1035290551" type="tourism" color="207,245,201" fill="1" layer="-2.00" shape="930.420884,2325.927812 929.221192,2325.780186 928.461093,2325.144105 927.901852,2324.391962 927.448265,2323.259655 927.357992,2322.484669 927.783143,2321.419194 928.549734,2320.545035 929.416251,2320.123618 930.946830,2320.040892 932.206277,2320.098194 933.532179,2320.686802 933.772131,2321.424731 933.791852,2322.212586 933.500617,2323.319123 933.124977,2324.239014 932.622330,2325.039944 931.833031,2325.714808 930.420884,2325.927812"/>
    <poly id="1035501454" type="commercial" color="209,209,204" fill="1" layer="-3.00" shape="866.593232,2235.122318 810.187033,2165.838734 808.815079,2166.950135 747.285883,2217.146963 718.982677,2240.229675 707.134104,2249.631451 641.967146,2301.330447 625.155993,2315.264847 656.046614,2329.335968 659.160984,2329.879707 661.943179,2329.188178 665.158004,2325.609991 666.581645,2324.441751 668.011728,2323.884043 669.771113,2323.740016 671.960851,2324.506798 777.291181,2372.000049 782.716771,2373.918291 787.928717,2375.442161 792.292575,2376.354377 798.072576,2375.798770 803.390040,2373.400464 818.379827,2360.666815 820.344906,2356.709161 821.246555,2351.323581 807.389855,2268.871694 807.738725,2266.175905 809.140757,2264.497470 810.349435,2263.234708 813.792123,2260.261572 820.895277,2254.520817 826.390621,2251.085451 833.738833,2246.992994 866.593232,2235.122318"/>
    <poly id="1035501455" type="parking" color="184,184,179" fill="1" layer="-1.00" shape="655.100519,2317.745387 641.967146,2301.330447 707.134104,2249.631451 718.982677,2240.229675 728.467105,2252.094880 704.144210,2271.380454 707.793364,2275.941392 655.100519,2317.745387"/>
    <poly id="1035501456" type="parking" color="184,184,179" fill="1" layer="-1.00" shape="773.213728,2233.274869 782.083907,2226.279535 773.567780,2215.578093 764.697317,2222.562340 773.213728,2233.274869"/>
    <poly id="1035501458" type="parking" color="184,184,179" fill="1" layer="-1.00" shape="808.815079,2166.950135 817.801052,2178.017365 755.842895,2227.003488 747.285883,2217.146963 808.815079,2166.950135"/>
    <poly id="1035501461" type="leisure" color="207,245,201" fill="1" layer="-2.00" shape="743.565382,2240.857363 741.847638,2242.310545 739.749931,2243.095932 737.509922,2243.152053 735.473743,2242.503545 733.750141,2241.247616 732.510675,2239.513209 731.892877,2237.485640 731.954875,2235.363313 732.693098,2233.357287 734.024847,2231.702807 735.812076,2230.547677 737.880765,2230.018398 740.010960,2230.175996 742.079263,2231.045771 743.729575,2232.558918 744.788948,2234.531012 745.119016,2236.743448 744.695399,2238.930351 743.565382,2240.857363"/>
    <poly id="1035501462" type="building" color="255,230,230" fill="1" layer="-1.00" shape="802.082120,2257.512490 832.430862,2233.324012 820.305840,2218.249291 789.965925,2242.437590 802.082120,2257.512490"/>
    <poly id="1035501463" type="building" color="255,230,230" fill="1" layer="-1.00" shape="775.101360,2263.007225 780.306760,2269.572256 792.062434,2260.350570 769.510730,2231.868652 760.422558,2239.002704 777.768878,2260.919565 775.101360,2263.007225"/>
    <poly id="1035501464" type="building" color="255,230,230" fill="1" layer="-1.00" shape="752.029409,2271.757387 763.951882,2262.475962 761.554083,2259.415940 768.219283,2254.230182 761.328060,2245.442269 756.496534,2249.205260 754.364106,2246.482800 751.540000,2248.685425 745.939395,2241.552927 745.243711,2240.659867 740.411910,2244.411770 741.070790,2245.250234 746.579801,2252.262886 741.583121,2256.152162 743.715274,2258.863521 738.553714,2262.890173 745.380471,2271.579751 749.421298,2268.436152 752.029409,2271.757387"/>
    <poly id="1035501467" type="building" color="255,230,230" fill="1" layer="-1.00" shape="742.192133,2272.681153 736.173141,2265.115003 726.894699,2272.431519 725.485901,2270.656942 720.455774,2274.624795 721.809503,2276.323026 717.344031,2279.843696 715.752319,2277.840530 709.271151,2282.943998 713.122588,2287.799664 711.636959,2288.969449 715.799150,2294.205953 732.418570,2281.098213 735.108036,2284.484026 742.206157,2278.898775 739.168852,2275.066430 742.192133,2272.681153"/>
    <poly id="1035501468" type="building" color="255,230,230" fill="1" layer="-1.00" shape="702.216080,2318.529931 688.388510,2301.277348 680.153686,2307.812730 684.973380,2313.832196 682.567619,2315.757879 686.664783,2320.873860 688.879933,2319.119507 693.781800,2325.236850 702.216080,2318.529931"/>
    <poly id="1035501469" type="building" color="255,230,230" fill="1" layer="-1.00" shape="715.196584,2294.554158 708.986645,2286.792947 705.633609,2289.452984 703.987382,2287.395669 698.784093,2291.523325 700.283934,2293.395548 695.584156,2297.110862 694.047510,2295.184044 688.687644,2299.426666 692.565648,2304.281658 691.670955,2304.992497 695.694785,2310.010389 715.196584,2294.554158"/>
    <poly id="1035501470" type="building" color="255,230,230" fill="1" layer="-1.00" shape="796.291355,2334.749259 791.458455,2328.552409 794.900036,2325.890189 789.124347,2318.484464 798.362406,2311.324477 808.979840,2324.926843 796.291355,2334.749259"/>
    <poly id="1035501471" type="building" color="255,230,230" fill="1" layer="-1.00" shape="789.616366,2311.954374 784.783728,2305.768624 788.225318,2303.106401 782.440754,2295.700902 791.687689,2288.540687 802.296028,2302.132171 789.616366,2311.954374"/>
    <poly id="1035501472" type="water" color="181,209,209" fill="1" layer="-4.00" shape="776.730606,2283.485718 772.237763,2277.780017 779.310741,2272.250947 783.803582,2277.956651 776.730606,2283.485718"/>
    <poly id="1035501473" type="building" color="255,230,230" fill="1" layer="-1.00" shape="755.451903,2287.782857 758.083994,2285.696077 764.659153,2293.892313 760.142220,2297.480870 757.846823,2294.618147 749.264465,2301.428647 751.175775,2303.812435 744.843455,2308.845525 742.474723,2305.884712 739.113109,2308.556054 735.089584,2303.549240 737.938559,2301.279363 735.497046,2298.242650 739.596774,2294.975430 742.093354,2298.088489 744.230227,2296.391632 741.660593,2293.191574 746.881052,2289.041309 749.542280,2292.361212 752.026634,2290.389167 749.548319,2287.297854 752.918799,2284.626295 755.451903,2287.782857"/>
    <poly id="1035501474" type="building" color="255,230,230" fill="1" layer="-1.00" shape="725.198039,2312.913067 727.830114,2310.826278 734.405287,2319.022490 729.888381,2322.611065 727.592979,2319.748350 719.010949,2326.569980 720.921986,2328.942664 714.589702,2333.975779 712.212111,2331.015196 708.850796,2333.697648 704.826983,2328.679751 707.675942,2326.409863 705.234424,2323.373159 709.342982,2320.105701 711.839567,2323.218752 713.976428,2321.521886 711.406789,2318.321837 716.627217,2314.171552 719.288451,2317.491446 721.763936,2315.519612 719.294470,2312.428087 722.656076,2309.756736 725.198039,2312.913067"/>
    <poly id="1035501475" type="building" color="255,230,230" fill="1" layer="-1.00" shape="754.202286,2345.052823 750.503356,2340.271044 752.476447,2338.755948 746.085844,2330.499581 743.478109,2332.496927 739.220743,2326.996311 742.124223,2324.780587 739.789519,2321.763405 746.752065,2316.425829 747.805270,2317.798487 751.690599,2314.814232 767.309849,2334.986666 754.202286,2345.052823"/>
    <poly id="1035501476" type="building" color="255,230,230" fill="1" layer="-1.00" shape="772.402624,2358.276417 778.217598,2353.811481 776.139434,2351.132072 783.823211,2345.232388 785.654541,2347.607083 790.443696,2343.922891 784.684887,2336.483437 781.312474,2339.077308 779.463156,2336.691961 783.009307,2333.960495 780.921175,2331.236921 773.219679,2337.137051 777.302126,2342.375579 774.389790,2344.591513 772.887752,2342.630505 775.434070,2340.656914 772.914803,2337.344551 764.207932,2343.780638 766.807718,2347.124291 769.615474,2344.977596 771.122197,2346.771933 768.007898,2349.059549 763.989926,2343.919341 760.260916,2346.777536 764.280279,2351.973225 762.385205,2353.419743 766.907917,2359.257931 770.828090,2356.250605 772.402624,2358.276417"/>
    <poly id="1035502593" type="parking" color="184,184,179" fill="1" layer="-1.00" shape="891.782811,2099.328656 907.164738,2114.621747 908.463903,2115.910543 829.541178,2179.488817 815.300806,2161.668985 891.782811,2099.328656"/>
    <poly id="1035502594" type="building" color="255,230,230" fill="1" layer="-1.00" shape="891.007358,2150.102199 900.032092,2142.903271 903.927460,2147.746818 896.561874,2153.627303 909.692703,2169.953856 934.517375,2150.156718 921.880235,2134.439567 919.326630,2136.479910 909.021353,2123.669043 894.524193,2135.224286 895.813428,2136.824227 886.380336,2144.344280 891.007358,2150.102199"/>
    <poly id="1035502595" type="building" color="255,230,230" fill="1" layer="-1.00" shape="876.767405,2151.757813 882.664013,2159.038433 871.920696,2167.657245 875.660000,2172.282616 861.555561,2183.594920 875.168453,2200.420112 858.545637,2213.760799 833.348956,2182.602378 864.831815,2157.341915 866.797354,2159.768785 876.767405,2151.757813"/>
    <poly id="1035508060" type="tourism" color="207,245,201" fill="0" layer="-2.00" shape="702.735633,2489.866574 701.930187,2491.663324 701.260881,2493.589904 700.633385,2495.770817 700.602736,2498.436433 702.543192,2536.628367 701.985965,2540.906088 700.277510,2545.201555 697.991544,2548.723145 695.382871,2551.386748 690.518048,2554.873039 680.308567,2563.201183 678.299714,2565.760931 675.767768,2571.131880 674.106938,2575.559403 672.042330,2581.196229 669.789575,2584.628168 666.697184,2588.491984 663.957170,2591.569721 659.864254,2594.747992 655.396064,2597.091803 651.350243,2598.614471 642.692493,2601.340899 637.981932,2603.557553 633.389902,2606.615108 629.360974,2610.224829 623.282575,2616.539680 617.515723,2622.913346 613.092401,2627.399040 608.209951,2630.885827 603.170269,2633.754760 598.558464,2635.669167 593.759804,2636.844324 588.466647,2637.376775 583.904097,2637.369042 578.576765,2636.891933 572.938401,2636.022900 553.055972,2633.079408 458.481760,2618.763126 467.511631,2600.504397 481.557408,2572.071130 538.529486,2450.546110 552.266517,2432.036210"/>
    <poly id="1035508064" type="building" color="255,230,230" fill="1" layer="-1.00" shape="590.987919,2460.223163 628.981866,2395.436396 587.654909,2385.591012 583.332512,2384.566827 555.689775,2433.593689 554.078273,2436.454401 567.889522,2441.393350 578.589937,2445.222244 590.987919,2460.223163"/>
    <poly id="1035508064#1" type="tourism" color="207,245,201" fill="1" layer="-2.00" shape="590.987919,2460.223163 628.981866,2395.436396 587.654909,2385.591012 583.332512,2384.566827 555.689775,2433.593689 554.078273,2436.454401 567.889522,2441.393350 578.589937,2445.222244 590.987919,2460.223163"/>
    <poly id="1035508065" type="water" color="181,209,209" fill="1" layer="-4.00" shape="629.978925,2390.681296 626.533912,2385.782168 625.502343,2384.919745 624.546102,2384.588403 615.791093,2383.797460 614.902946,2383.708690 614.054291,2383.074856 607.184315,2374.430878 606.511339,2373.737124 605.783900,2373.344530 604.891023,2373.067120 589.431046,2372.688582 588.843693,2372.936482 588.324437,2373.426954 587.985037,2374.023951 587.704879,2374.863740 587.654909,2385.591012 628.981866,2395.436396 629.978925,2390.681296"/>
    <poly id="1035566753" type="amenity" color="237,199,199" fill="1" layer="-1.00" shape="684.649360,2557.540623 682.694093,2553.048282 686.415655,2551.311687 688.743377,2549.809890 692.411452,2547.352909 693.969156,2545.526202 695.575442,2542.809995 696.547570,2539.887610 697.024506,2537.355156 696.815558,2532.552563 701.632920,2532.120938 701.850719,2536.923309 701.358203,2540.955130 699.801324,2544.935900 697.708187,2548.374933 695.183877,2550.869869 690.797930,2554.022156 688.305887,2555.683520 684.649360,2557.540623"/>
    <poly id="1035566753#1" type="building" color="255,230,230" fill="1" layer="-1.00" shape="684.649360,2557.540623 682.694093,2553.048282 686.415655,2551.311687 688.743377,2549.809890 692.411452,2547.352909 693.969156,2545.526202 695.575442,2542.809995 696.547570,2539.887610 697.024506,2537.355156 696.815558,2532.552563 701.632920,2532.120938 701.850719,2536.923309 701.358203,2540.955130 699.801324,2544.935900 697.708187,2548.374933 695.183877,2550.869869 690.797930,2554.022156 688.305887,2555.683520 684.649360,2557.540623"/>
    <poly id="1035567590" type="building" color="255,230,230" fill="1" layer="-1.00" shape="634.190415,2371.377712 635.107869,2358.852134 603.080097,2344.298842 602.488062,2358.848215 614.935128,2359.901901 634.190415,2371.377712"/>
    <poly id="1035567590#1" type="tourism" color="207,245,201" fill="1" layer="-2.00" shape="634.190415,2371.377712 635.107869,2358.852134 603.080097,2344.298842 602.488062,2358.848215 614.935128,2359.901901 634.190415,2371.377712"/>
    <poly id="1035567591" type="building" color="255,230,230" fill="1" layer="-1.00" shape="627.732108,2331.444741 653.494388,2343.090593 644.870044,2362.005114 633.794507,2356.997456 636.405863,2351.258091 621.719154,2344.619920 627.732108,2331.444741"/>
    <poly id="1035567591#1" type="tourism" color="207,245,201" fill="1" layer="-2.00" shape="627.732108,2331.444741 653.494388,2343.090593 644.870044,2362.005114 633.794507,2356.997456 636.405863,2351.258091 621.719154,2344.619920 627.732108,2331.444741"/>
    <poly id="1035571568" type="building" color="255,230,230" fill="1" layer="-1.00" shape="1190.512711,2046.420143 1188.682853,2044.456156 1182.182466,2037.468016 1189.863694,2030.380738 1191.734271,2028.657352 1200.064791,2037.620586 1190.512711,2046.420143"/>
    <poly id="1035571572" type="building" color="255,230,230" fill="1" layer="-1.00" shape="1186.622585,2060.918601 1191.734005,2059.480615 1190.392047,2054.706355 1185.280347,2056.133245 1186.622585,2060.918601"/>
    <poly id="1035571576" type="leisure" color="207,245,201" fill="1" layer="-2.00" shape="1052.735169,2067.897498 1088.445332,2055.045845 1087.853807,2004.117839 1062.082813,1991.071805 1025.223692,2018.564494 1026.832274,2020.889296 1019.215245,2026.642707 1052.735169,2067.897498"/>
    <poly id="1035571577" type="amenity" color="237,199,199" fill="1" layer="-1.00" shape="1081.527881,2055.118923 1079.568100,2055.045801 1077.710376,2054.448262 1076.137339,2053.543810 1074.502019,2052.274501 1073.396800,2050.592207 1072.759176,2048.831597 1072.269211,2045.890324 1072.223416,2044.059393 1072.649658,2042.327692 1073.564534,2040.650389 1074.483879,2039.505942 1075.583079,2038.468032 1077.526490,2037.886457 1079.136529,2037.790670 1080.501431,2037.812050 1082.055347,2038.306153 1083.747928,2039.385272 1085.239114,2040.913569 1086.326069,2042.574114 1087.198335,2044.506512 1087.796153,2046.801086 1087.787461,2048.933173 1087.066009,2050.905430 1085.689087,2052.882978 1084.411447,2054.225144 1083.121569,2054.723751 1081.527881,2055.118923"/>
    <poly id="1035571577#1" type="building" color="255,230,230" fill="1" layer="-1.00" shape="1081.527881,2055.118923 1079.568100,2055.045801 1077.710376,2054.448262 1076.137339,2053.543810 1074.502019,2052.274501 1073.396800,2050.592207 1072.759176,2048.831597 1072.269211,2045.890324 1072.223416,2044.059393 1072.649658,2042.327692 1073.564534,2040.650389 1074.483879,2039.505942 1075.583079,2038.468032 1077.526490,2037.886457 1079.136529,2037.790670 1080.501431,2037.812050 1082.055347,2038.306153 1083.747928,2039.385272 1085.239114,2040.913569 1086.326069,2042.574114 1087.198335,2044.506512 1087.796153,2046.801086 1087.787461,2048.933173 1087.066009,2050.905430 1085.689087,2052.882978 1084.411447,2054.225144 1083.121569,2054.723751 1081.527881,2055.118923"/>
    <poly id="1035575168" type="leisure" color="207,245,201" fill="1" layer="-2.00" shape="1075.912451,2122.124586 1106.192311,2111.074342 1094.975682,2080.587095 1064.695998,2091.648472 1075.912451,2122.124586"/>
    <poly id="1035575620" type="tourism" color="207,245,201" fill="1" layer="-2.00" shape="1259.899428,2090.343390 1302.425485,2134.693965 1289.459604,2146.920852 1280.887734,2137.863641 1256.641228,2110.988446 1247.899933,2101.535773 1259.899428,2090.343390"/>
    <poly id="1035910589" type="water" color="181,209,209" fill="1" layer="-4.00" shape="999.791077,2359.656258 998.195808,2357.153475 997.066545,2355.571725 996.087548,2354.330424 997.086036,2353.872402 997.200792,2353.147802 997.402729,2352.720816 999.926300,2352.668771 1000.126079,2352.863635 1000.267769,2353.215402 1000.405294,2353.400720 1000.629412,2353.506147 1000.937069,2353.409620 1004.709618,2350.872450 1007.408666,2354.646725 999.791077,2359.656258"/>
    <poly id="1035910590" type="amenity" color="237,199,199" fill="1" layer="-1.00" shape="938.352630,2447.434821 938.021749,2442.002384 947.102109,2440.931229 947.499682,2446.550756 938.352630,2447.434821"/>
    <poly id="1035910590#1" type="building" color="255,230,230" fill="1" layer="-1.00" shape="938.352630,2447.434821 938.021749,2442.002384 947.102109,2440.931229 947.499682,2446.550756 938.352630,2447.434821"/>
    <poly id="1035923417" type="amenity" color="237,199,199" fill="1" layer="-1.00" shape="1062.238027,2279.203531 1065.773912,2278.182388 1066.616951,2274.697009 1064.148193,2271.982891 1060.467342,2273.229731 1059.771211,2276.567090 1062.238027,2279.203531"/>
    <poly id="1035923417#1" type="building" color="255,230,230" fill="1" layer="-1.00" shape="1062.238027,2279.203531 1065.773912,2278.182388 1066.616951,2274.697009 1064.148193,2271.982891 1060.467342,2273.229731 1059.771211,2276.567090 1062.238027,2279.203531"/>
    <poly id="1035923418" type="amenity" color="237,199,199" fill="1" layer="-1.00" shape="1124.435548,2374.714591 1127.337464,2372.787736 1127.240893,2368.926136 1123.819397,2367.435007 1120.804880,2369.464610 1121.009085,2373.379035 1124.435548,2374.714591"/>
    <poly id="1035923418#1" type="building" color="255,230,230" fill="1" layer="-1.00" shape="1124.435548,2374.714591 1127.337464,2372.787736 1127.240893,2368.926136 1123.819397,2367.435007 1120.804880,2369.464610 1121.009085,2373.379035 1124.435548,2374.714591"/>
    <poly id="1036429014" type="leisure" color="207,245,201" fill="1" layer="-2.00" shape="1096.135978,2346.597700 1099.083583,2345.080522 1100.870276,2343.903279 1102.909812,2342.208951 1104.094456,2341.046766 1105.668913,2339.530624 1106.942622,2338.033107 1108.008258,2336.363139 1108.403512,2334.809868 1108.610923,2333.538883 1108.714310,2332.359327 1108.723083,2331.293172 1108.478375,2329.655976 1108.285177,2328.661493 1107.961395,2327.759105 1107.540804,2327.236656 1106.965843,2326.917932 1106.022357,2326.741665 1104.335994,2326.617290 1100.514533,2326.846109 1097.062733,2327.332168 1094.504379,2328.473195 1091.926986,2330.269806 1089.950257,2331.995875 1088.355069,2333.745712 1087.208339,2335.006883 1084.958065,2337.839042 1083.353028,2340.965960 1082.711043,2343.280441 1082.741297,2344.489965 1083.075074,2345.791829 1083.391087,2346.383513 1084.115201,2346.998300 1085.782799,2347.789350 1087.465578,2348.124778 1089.951515,2347.984874 1092.032125,2347.932833 1094.102744,2347.481317 1096.135978,2346.597700"/>
    <poly id="1036429022" type="leisure" color="207,245,201" fill="1" layer="-2.00" shape="1112.735709,2374.485330 1113.522599,2374.776548 1127.079297,2379.822702 1127.857332,2380.114142 1128.692071,2380.193199 1129.494976,2380.062085 1130.248895,2379.743436 1130.900985,2379.249679 1131.407531,2378.604113 1131.734508,2377.863105 1131.873893,2377.060168 1131.809368,2376.251227 1130.283468,2360.933260 1130.024995,2360.162479 1129.573683,2359.474246 1128.975190,2358.922935 1128.256908,2358.541172 1127.463383,2358.338946 1126.648292,2358.337123 1125.838474,2358.546134 1125.585049,2358.685714 1125.113334,2358.952891 1112.295646,2368.933487 1111.698621,2369.503593 1111.255716,2370.214190 1111.009811,2371.008688 1110.968373,2371.831383 1111.139422,2372.648763 1111.503585,2373.394693 1112.050622,2374.013910 1112.735709,2374.485330"/>